[General]
network = DMV_Current
sim-time-limit = 32400s
# ARRIVALS
*.source.numJobs = 1000
*.source.interArrivalTime = exponential(60s)
# 0-1 = license, 2-3 = vehicle, 4 = test
*.source.jobType = intuniform(0,4)
# CLASSIFIER
*.classifier.dispatchField = "type"
*.classifier.numCategories = 5
# QUEUE CAPACITY
*.receptionQueue.capacity = 1000
*.combinedQueue.capacity = 1000
*.testQueue.capacity = 1000
# SERVICE TIMES
*.receptionist.serviceTime = exponential(45s)
*.combinedClerks[*].serviceTime = exponential(750s)
*.testClerks[*].serviceTime = exponential(600s)
# RECORD RESULTS
**.queueLength.result-recording-modes = +vector,+timeavg
**.queueingTime.result-recording-modes = +vector,+mean
**.busy.result-recording-modes = +vector,+timeavg
