[General]
network = DMV
sim-time-limit = 1h

*.arrival.interArrivalTime = exponential(5s)
*.clerk.serviceTime = truncnormal(4s, 1s)